Warning: m=xx on .subckt line will override multiplier m hierarchy!

Warning: vc_1: no DC value, transient time 0 value used
Warning: vc_0: no DC value, transient time 0 value used

Compatibility modes selected: hs a


Circuit: 

option SCALE: Scale is set to 1e-06 for instance and model parameters
binary raw file "CORNER:tt_RO:_RB:_RBUF:_TEMP:25_VDD:1.8.raw"
Doing analysis at TEMP = 25.000000 and TNOM = 27.000000

No. of Data Columns : 525  

Initial Transient Solution
--------------------------

Node                                   Voltage
----                                   -------
vpwr_0                                     1.8
vnb                                          0
vgnd                                         0
vpwr_clk_buf1_branch_0                     1.8
vpwr_clk_buf1_branch_1                     1.8
vpwr_clk_buf1_branch_2                     1.8
vpwr_clk_buf1_branch_3                     1.8
vpwr_clk_buf1_branch_4                     1.8
vpwr_clk_buf1_branch_5                     1.8
vpwr_clk_buf1_branch_6                     1.8
vpwr_clk_buf1_0                            1.8
vpwr_clk_buf1_1                            1.8
clk_0                                        0
clk_1                                        0
co_0                               2.57049e-09
co_1                               2.57049e-09
co_2                               2.57049e-09
co_i_0_0                           2.57049e-09
co_i_1_0                           2.57049e-09
ff_0_0                             4.90093e-09
ff_1_0                             4.90093e-09
ff_clk_0_0                         4.90093e-09
ff_clk_1_0                         4.90093e-09
vc_1#branch                                  0
vc_0#branch                                  0
vvgnd#branch                       8.85456e-11
vnb#branch                         1.81003e-11
vvdd#branch                       -1.06615e-10

 Reference value :  2.05400e-08 Reference value :  4.38400e-08
No. of Data Rows : 524

Total analysis time (seconds) = 0.29

Total elapsed time (seconds) = 14.701 

Total DRAM available = 241823.398 MB.
DRAM currently available = 99275.785 MB.
Maximum ngspice program size =  704.234 MB.
Current ngspice program size =  666.656 MB.

Shared ngspice pages =    9.770 MB.
Text (code) pages =    5.609 MB.
Stack = 0 bytes.
Library pages =  665.219 MB.

